
**** 03/16/17 13:32:34 ********* PSpice 9.2 (Mar 2000) ******** ID# 1 ********

 ** Profile: "SCHEMATIC1-rect_imp"  [ D:\metrology\rc_int_circuit\rc_int_circuit-schematic1-rect_imp.sim ] 


 ****     CIRCUIT DESCRIPTION


******************************************************************************




** Creating circuit file "rc_int_circuit-schematic1-rect_imp.sim.cir" 
** WARNING: THIS AUTOMATICALLY GENERATED FILE MAY BE OVERWRITTEN BY SUBSEQUENT SIMULATIONS

*Libraries: 
* Local Libraries :
.STMLIB ".\RC_INT_CIRCUIT.stl" 
* From [PSPICE NETLIST] section of C:\Programs\Orcad\PSpice\PSpice.ini file:
.lib "nom.lib" 

*Analysis directives: 
.TRAN  0 3u 0 
.PROBE V(*) I(*) W(*) D(*) NOISE(*) 
.INC ".\rc_int_circuit-SCHEMATIC1.net" 



**** INCLUDING rc_int_circuit-SCHEMATIC1.net ****
* source RC_INT_CIRCUIT
R_R1         N00198 N00133  1k  
C_C1         0 N00133  1n  
V_V1         N00198 0   STIMULUS=u1

**** RESUMING rc_int_circuit-schematic1-rect_imp.sim.cir ****
.END
* D:\METROLOGY\RC_INT_CIRCUIT\RC_INT_CIRCUIT.stl written on Thu Mar 16 13:31:44 2017
* by Stimulus Editor -- Serial Number: 1 -- Version 9.2
;!Stimulus Get
;! u1 Analog
;!Ok
;!Plot Axis_Settings
;!Xrange 0s 30us
;!Yrange 0 5
;!AutoUniverse
;!XminRes 1ns
;!YminRes 1n
;!Ok
.STIMULUS u1 PULSE( 0 5 0 1n 1n 1u 10u )

**** 03/16/17 13:32:34 ********* PSpice 9.2 (Mar 2000) ******** ID# 1 ********

 ** Profile: "SCHEMATIC1-rect_imp"  [ D:\metrology\rc_int_circuit\rc_int_circuit-schematic1-rect_imp.sim ] 


 ****     INITIAL TRANSIENT SOLUTION       TEMPERATURE =   27.000 DEG C


******************************************************************************



 NODE   VOLTAGE     NODE   VOLTAGE     NODE   VOLTAGE     NODE   VOLTAGE


(N00133)    0.0000 (N00198)    0.0000 




    VOLTAGE SOURCE CURRENTS
    NAME         CURRENT

    V_V1         0.000E+00

    TOTAL POWER DISSIPATION   0.00E+00  WATTS



          JOB CONCLUDED

          TOTAL JOB TIME            0.00
