
**** 05/31/17 12:47:15 ********* PSpice 9.2 (Mar 2000) ******** ID# 1 ********

 ** Profile: "SCHEMATIC1-volts-watts"  [ D:\metrology\power_regulator\orcad\modeling_schema\schema-schematic1-volts-watts.sim ] 


 ****     CIRCUIT DESCRIPTION


******************************************************************************




** Creating circuit file "schema-schematic1-volts-watts.sim.cir" 
** WARNING: THIS AUTOMATICALLY GENERATED FILE MAY BE OVERWRITTEN BY SUBSEQUENT SIMULATIONS

*Libraries: 
* Local Libraries :
.STMLIB ".\SCHEMA.stl" 
* From [PSPICE NETLIST] section of C:\Programs\Orcad\PSpice\PSpice.ini file:
.lib "nom.lib" 

*Analysis directives: 
.TRAN  0 20ms 0 
.PROBE V(*) I(*) W(*) D(*) NOISE(*) 
.INC ".\schema-SCHEMATIC1.net" 



**** INCLUDING schema-SCHEMATIC1.net ****
* source SCHEMA
D_VD1         IN N00415 MUR160 
D_VD6         N00475 N01067 D1N758 
V_V1         IN 0   STIMULUS=sin220-50
D_VD2         OUT N00415 MUR160 
D_VD3         N00475 OUT MUR160 
C_C1         N01483 N00475  100n  
Q_VT2         N01276 N02091 N01815 QBC846/PLP 
D_VD4         N00475 IN MUR160 
R_R7         0 OUT  1k  
R_R4         N01453 N01067  1n  
R_R5         N01483 N01453  3k  
R_R6         N00475 N01815  100  
R_R2         N01276 N01067  2k  
X_VD5         N00415 N01815 N00475 MAC224A6
R_R3         N00475 N01276  2k  
R_R1         N01067 N00415  30k  
Q_VT1         N02091 N01276 N01483 Q2N4250

**** RESUMING schema-schematic1-volts-watts.sim.cir ****
.END
* D:\METROLOGY\POWER_REGULATOR\ORCAD\MODELING_SCHEMA\SCHEMA.stl written on Wed May 31 12:44:49 2017
* by Stimulus Editor -- Serial Number: 1 -- Version 9.2
;!Stimulus Get
;! sin220-50 Analog
;!Ok
;!Plot Axis_Settings
;!Xrange 0s 60ms
;!Yrange -400 400
;!AutoUniverse
;!XminRes 1ns
;!YminRes 1n
;!Ok
.STIMULUS sin220-50 SIN( 0 220 50 0 0 0 )

**** 05/31/17 12:47:15 ********* PSpice 9.2 (Mar 2000) ******** ID# 1 ********

 ** Profile: "SCHEMATIC1-volts-watts"  [ D:\metrology\power_regulator\orcad\modeling_schema\schema-schematic1-volts-watts.sim ] 


 ****     Diode MODEL PARAMETERS


******************************************************************************




               MUR160          D1N758          X_VD5.X1.Dgk    X_VD5.X1.Delay  
          IS    1.043000E-12    1.953000E-15  100.000000E-18    1.000000E-12 
         ISR    7.011000E-09    1.939000E-09                                 
         IKF    2.705000E-03                                                 
          BV                   10                                            
         IBV                     .16597                                      
         NBV                     .84122                                      
        IBVL                    1.003000E-03                                 
        NBVL                     .20892                                      
          RS     .07444         2.305           5                .01         
          TT  123.300000E-09                                                 
         CJO   28.430000E-12   68.000000E-12   50.000000E-12    5.000000E-12 
          VJ     .75             .75                                         
           M     .6225           .3856                                       
         XTI    2                                                            
        TBV1                  650.000000E-06                                 


               X_VD5.X1.Dak    
          IS   40.000000E-12 
         CJO    5.000000E-12 


**** 05/31/17 12:47:15 ********* PSpice 9.2 (Mar 2000) ******** ID# 1 ********

 ** Profile: "SCHEMATIC1-volts-watts"  [ D:\metrology\power_regulator\orcad\modeling_schema\schema-schematic1-volts-watts.sim ] 


 ****     BJT MODEL PARAMETERS


******************************************************************************




               QBC846/PLP      Q2N4250         
               NPN             PNP             
          IS   18.220000E-15    6.734000E-15 
          BF  324.4           388.2          
          NF     .9932          1            
         VAF   82              45.7          
         IKF     .109            .205        
         ISE  289.400000E-18    6.734000E-15 
          NE    1.4             1.806        
          BR    8.29            2.635        
          NR     .9931          1            
         VAR   17.9                          
         IKR     .09                         
         ISC    9.982000E-12                 
          NC    1.763                        
          RB   10              10            
         RBM    5                            
         IRB    5.000000E-06                 
          RE     .649                        
          RC     .7014          1.67         
         CJE   12.440000E-12    7.500000E-12 
         VJE     .7579                       
         MJE     .3656           .2861       
         CJC    3.347000E-12    6.200000E-12 
         VJC     .5463                       
         MJC     .391            .301        
        XCJC     .6193                       
         MJS     .333                        
          FC     .979                        
          TF  490.800000E-12  467.900000E-12 
         XTF    9.51            8            
         VTF    2.927           5            
         ITF     .3131           .17         
          TR   90.000000E-09    9.861000E-09 
         XTB                    1.5          
          CN    2.42            2.2          
           D     .87             .52         


**** 05/31/17 12:47:15 ********* PSpice 9.2 (Mar 2000) ******** ID# 1 ********

 ** Profile: "SCHEMATIC1-volts-watts"  [ D:\metrology\power_regulator\orcad\modeling_schema\schema-schematic1-volts-watts.sim ] 


 ****     Voltage Controlled Switch MODEL PARAMETERS


******************************************************************************




               X_VD5.X1.Vswitch 
         RON     .0125       
        ROFF   70.000000E+03 
         VON    5            
        VOFF    1.5          


**** 05/31/17 12:47:15 ********* PSpice 9.2 (Mar 2000) ******** ID# 1 ********

 ** Profile: "SCHEMATIC1-volts-watts"  [ D:\metrology\power_regulator\orcad\modeling_schema\schema-schematic1-volts-watts.sim ] 


 ****     INITIAL TRANSIENT SOLUTION       TEMPERATURE =   27.000 DEG C


******************************************************************************



 NODE   VOLTAGE     NODE   VOLTAGE     NODE   VOLTAGE     NODE   VOLTAGE


(   IN)    0.0000  (  OUT) 93.88E-18  (N00415) 3.539E-12 (N00475) 3.571E-12     

(N01067) 3.568E-12 (N01276) 3.569E-12 (N01453) 3.568E-12 (N01483) 3.568E-12     

(N01815) 3.571E-12 (N02091) 3.569E-12 (X_VD5.X1.MT20) 3.539E-12                 

(X_VD5.X1.MT21) 3.571E-12             (X_VD5.X1.MT22) 3.571E-12                 

(X_VD5.X1.MT23) 3.539E-12             (X_VD5.X1.dlay1) 16.77E-21                

(X_VD5.X1.dlay2)-38.33E-21            (X_VD5.X1.dvdt0) 32.56E-15                

(X_VD5.X1.dvdt1) 3.571E-12            (X_VD5.X1.dvdt2) 3.571E-12                

(X_VD5.X1.gate1) 3.571E-12            (X_VD5.X1.gate2) 3.571E-12                

(X_VD5.X1.main1)    0.0000            (X_VD5.X1.main2)    0.0000                

(X_VD5.X1.main4)    1.0000            (X_VD5.X1.cnhold)    0.0000               

(X_VD5.X1.cnmain)    0.0000           (X_VD5.X1.cntrol)-499.9E-15               

(X_VD5.X1.contot)    0.0000           (X_VD5.X1.dlayr1) 16.12E-21               

(X_VD5.X1.dlayr2)-36.86E-21           (X_VD5.X1.main1r)    0.0000               

(X_VD5.X1.main2r)    0.0000           (X_VD5.X1.cnholdr)    0.0000              

(X_VD5.X1.cnmainr)    0.0000          (X_VD5.X1.cntrolr)-480.7E-15              

(X_VD5.X1.condvdt)    0.0000          (X_VD5.X1.congate)    0.0000              

(X_VD5.X1.contotr)    0.0000          




    VOLTAGE SOURCE CURRENTS
    NAME         CURRENT

    V_V1         9.396E-20
    X_VD5.X1.VIak  -5.038E-23
    X_VD5.X1.VIka   5.038E-23
    X_VD5.X1.VdVdt  -1.281E-29
    X_VD5.X1.VIgf  -1.982E-27

    TOTAL POWER DISSIPATION   0.00E+00  WATTS


ERROR -- Convergence problem in transient analysis at Time =  785.3E-06
         Time step =  8.063E-15, minimum allowable step size =  20.00E-15

  These supply currents failed to converge:

    I(X_VD5.X1.VIka)          =   195.54pA  \   192.81pA



  Last node voltages tried were:

 NODE   VOLTAGE     NODE   VOLTAGE     NODE   VOLTAGE     NODE   VOLTAGE


(   IN)   53.7250  (  OUT)   51.7500  (N00415)   53.0090 (N00475)   52.4660     

(N01067)   53.3860 (N01276)   53.0540 (N01453)   53.3860 (N01483)   53.8940     

(N01815)   53.0280 (N02091)   53.8580 (X_VD5.X1.MT20)   53.0080                 

(X_VD5.X1.MT21)   52.4660             (X_VD5.X1.MT22)   52.4660                 

(X_VD5.X1.MT23)   53.0090             (X_VD5.X1.dlay1)    7.1871                

(X_VD5.X1.dlay2)   10.0050            (X_VD5.X1.dvdt0)     .5433                

(X_VD5.X1.dvdt1)   52.4470            (X_VD5.X1.dvdt2)   52.4660                

(X_VD5.X1.gate1)   52.7980            (X_VD5.X1.gate2)   52.4660                

(X_VD5.X1.main1)    1.0000            (X_VD5.X1.main2)    1.0000                

(X_VD5.X1.main4)     .4891            (X_VD5.X1.cnhold)   10.0000               

(X_VD5.X1.cnmain)    0.0000           (X_VD5.X1.cntrol)    6.6193               

(X_VD5.X1.contot)   10.0000           (X_VD5.X1.dlayr1)-588.1E-06               

(X_VD5.X1.dlayr2)    1.6182           (X_VD5.X1.main1r)    0.0000               

(X_VD5.X1.main2r)    0.0000           (X_VD5.X1.cnholdr)    0.0000              

(X_VD5.X1.cnmainr)    0.0000          (X_VD5.X1.cntrolr)    2.1496              

(X_VD5.X1.condvdt)    0.0000          (X_VD5.X1.congate)    0.0000              

(X_VD5.X1.contotr)    0.0000          

